<?xml version="1.0" encoding="UTF-8"?>

<!-- generated on 2023-05-07 00:22:09 by Eclipse SUMO netedit Version 1.14.1
<configuration xmlns:xsi="http://www.w3.org/2001/XMLSchema-instance" xsi:noNamespaceSchemaLocation="http://sumo.dlr.de/xsd/netconvertConfiguration.xsd">

    <input>
        <sumo-net-file value="G:\Users\LEGION\Desktop\DQN_in_SUMO\SUMOsim\test2.net.xml"/>
    </input>

    <output>
        <output-file value="G:\Users\LEGION\Desktop\DQN_in_SUMO\SUMOsim\test2.net.xml"/>
    </output>

    <processing>
        <geometry.min-radius.fix.railways value="false"/>
        <geometry.max-grade.fix value="false"/>
        <offset.disable-normalization value="true"/>
        <lefthand value="false"/>
    </processing>

    <junctions>
        <no-turnarounds value="true"/>
        <junctions.corner-detail value="5"/>
        <junctions.limit-turn-speed value="5.5"/>
        <rectangular-lane-cut value="false"/>
    </junctions>

    <pedestrian>
        <walkingareas value="false"/>
    </pedestrian>

</configuration>
-->

<net version="1.9" junctionCornerDetail="5" limitTurnSpeed="5.50" xmlns:xsi="http://www.w3.org/2001/XMLSchema-instance" xsi:noNamespaceSchemaLocation="http://sumo.dlr.de/xsd/net_file.xsd">

    <location netOffset="0.00,0.00" convBoundary="-300.00,-300.00,300.00,300.00" origBoundary="-10000000000.00,-10000000000.00,10000000000.00,10000000000.00" projParameter="!"/>

    <edge id=":J0_0" function="internal">
        <lane id=":J0_0_0" index="0" speed="6.51" length="9.03" shape="-11.20,16.80 -11.55,14.35 -12.60,12.60 -14.35,11.55 -16.80,11.20"/>
    </edge>
    <edge id=":J0_1" function="internal">
        <lane id=":J0_1_0" index="0" speed="13.89" length="33.60" shape="-11.20,16.80 -11.20,-16.80"/>
        <lane id=":J0_1_1" index="1" speed="13.89" length="33.60" shape="-8.00,16.80 -8.00,-16.80"/>
        <lane id=":J0_1_2" index="2" speed="13.89" length="33.60" shape="-4.80,16.80 -4.80,-16.80"/>
        <lane id=":J0_1_3" index="3" speed="13.89" length="33.60" shape="-1.60,16.80 -1.60,-16.80"/>
    </edge>
    <edge id=":J0_5" function="internal">
        <lane id=":J0_5_0" index="0" speed="11.36" length="5.01" shape="-1.60,16.80 -0.89,11.84"/>
    </edge>
    <edge id=":J0_24" function="internal">
        <lane id=":J0_24_0" index="0" speed="11.36" length="24.66" shape="-0.89,11.84 -0.45,8.75 3.00,3.00 8.75,-0.45 16.80,-1.60"/>
    </edge>
    <edge id=":J0_6" function="internal">
        <lane id=":J0_6_0" index="0" speed="6.51" length="9.03" shape="16.80,11.20 14.35,11.55 12.60,12.60 11.55,14.35 11.20,16.80"/>
    </edge>
    <edge id=":J0_7" function="internal">
        <lane id=":J0_7_0" index="0" speed="13.89" length="33.60" shape="16.80,11.20 -16.80,11.20"/>
        <lane id=":J0_7_1" index="1" speed="13.89" length="33.60" shape="16.80,8.00 -16.80,8.00"/>
        <lane id=":J0_7_2" index="2" speed="13.89" length="33.60" shape="16.80,4.80 -16.80,4.80"/>
        <lane id=":J0_7_3" index="3" speed="13.89" length="33.60" shape="16.80,1.60 -16.80,1.60"/>
    </edge>
    <edge id=":J0_11" function="internal">
        <lane id=":J0_11_0" index="0" speed="11.36" length="5.01" shape="16.80,1.60 11.84,0.89"/>
    </edge>
    <edge id=":J0_25" function="internal">
        <lane id=":J0_25_0" index="0" speed="11.36" length="24.66" shape="11.84,0.89 8.75,0.45 3.00,-3.00 -0.45,-8.75 -1.60,-16.80"/>
    </edge>
    <edge id=":J0_12" function="internal">
        <lane id=":J0_12_0" index="0" speed="6.51" length="9.03" shape="11.20,-16.80 11.55,-14.35 12.60,-12.60 14.35,-11.55 16.80,-11.20"/>
    </edge>
    <edge id=":J0_13" function="internal">
        <lane id=":J0_13_0" index="0" speed="13.89" length="33.60" shape="11.20,-16.80 11.20,16.80"/>
        <lane id=":J0_13_1" index="1" speed="13.89" length="33.60" shape="8.00,-16.80 8.00,16.80"/>
        <lane id=":J0_13_2" index="2" speed="13.89" length="33.60" shape="4.80,-16.80 4.80,16.80"/>
        <lane id=":J0_13_3" index="3" speed="13.89" length="33.60" shape="1.60,-16.80 1.60,16.80"/>
    </edge>
    <edge id=":J0_17" function="internal">
        <lane id=":J0_17_0" index="0" speed="11.36" length="5.01" shape="1.60,-16.80 0.89,-11.84"/>
    </edge>
    <edge id=":J0_26" function="internal">
        <lane id=":J0_26_0" index="0" speed="11.36" length="24.66" shape="0.89,-11.84 0.45,-8.75 -3.00,-3.00 -8.75,0.45 -16.80,1.60"/>
    </edge>
    <edge id=":J0_18" function="internal">
        <lane id=":J0_18_0" index="0" speed="6.51" length="9.03" shape="-16.80,-11.20 -14.35,-11.55 -12.60,-12.60 -11.55,-14.35 -11.20,-16.80"/>
    </edge>
    <edge id=":J0_19" function="internal">
        <lane id=":J0_19_0" index="0" speed="13.89" length="33.60" shape="-16.80,-11.20 16.80,-11.20"/>
        <lane id=":J0_19_1" index="1" speed="13.89" length="33.60" shape="-16.80,-8.00 16.80,-8.00"/>
        <lane id=":J0_19_2" index="2" speed="13.89" length="33.60" shape="-16.80,-4.80 16.80,-4.80"/>
        <lane id=":J0_19_3" index="3" speed="13.89" length="33.60" shape="-16.80,-1.60 16.80,-1.60"/>
    </edge>
    <edge id=":J0_23" function="internal">
        <lane id=":J0_23_0" index="0" speed="11.36" length="5.01" shape="-16.80,-1.60 -11.84,-0.89"/>
    </edge>
    <edge id=":J0_27" function="internal">
        <lane id=":J0_27_0" index="0" speed="11.36" length="24.66" shape="-11.84,-0.89 -8.75,-0.45 -3.00,3.00 0.45,8.75 1.60,16.80"/>
    </edge>

    <edge id="-E0" from="J1" to="J0" priority="-1" length="500.00">
        <lane id="-E0_0" index="0" speed="13.89" length="500.00" shape="-300.00,-11.20 -16.80,-11.20"/>
        <lane id="-E0_1" index="1" speed="13.89" length="500.00" shape="-300.00,-8.00 -16.80,-8.00"/>
        <lane id="-E0_2" index="2" speed="13.89" length="500.00" shape="-300.00,-4.80 -16.80,-4.80"/>
        <lane id="-E0_3" index="3" speed="13.89" length="500.00" shape="-300.00,-1.60 -16.80,-1.60"/>
    </edge>
    <edge id="-E1" from="J2" to="J0" priority="-1" length="500.00">
        <lane id="-E1_0" index="0" speed="13.89" length="500.00" shape="-11.20,300.00 -11.20,16.80"/>
        <lane id="-E1_1" index="1" speed="13.89" length="500.00" shape="-8.00,300.00 -8.00,16.80"/>
        <lane id="-E1_2" index="2" speed="13.89" length="500.00" shape="-4.80,300.00 -4.80,16.80"/>
        <lane id="-E1_3" index="3" speed="13.89" length="500.00" shape="-1.60,300.00 -1.60,16.80"/>
    </edge>
    <edge id="-E2" from="J3" to="J0" priority="-1" length="500.00">
        <lane id="-E2_0" index="0" speed="13.89" length="500.00" shape="300.00,11.20 16.80,11.20"/>
        <lane id="-E2_1" index="1" speed="13.89" length="500.00" shape="300.00,8.00 16.80,8.00"/>
        <lane id="-E2_2" index="2" speed="13.89" length="500.00" shape="300.00,4.80 16.80,4.80"/>
        <lane id="-E2_3" index="3" speed="13.89" length="500.00" shape="300.00,1.60 16.80,1.60"/>
    </edge>
    <edge id="-E3" from="J4" to="J0" priority="-1" length="500.00">
        <lane id="-E3_0" index="0" speed="13.89" length="500.00" shape="11.20,-300.00 11.20,-16.80"/>
        <lane id="-E3_1" index="1" speed="13.89" length="500.00" shape="8.00,-300.00 8.00,-16.80"/>
        <lane id="-E3_2" index="2" speed="13.89" length="500.00" shape="4.80,-300.00 4.80,-16.80"/>
        <lane id="-E3_3" index="3" speed="13.89" length="500.00" shape="1.60,-300.00 1.60,-16.80"/>
    </edge>
    <edge id="E0" from="J0" to="J1" priority="-1" length="500.00">
        <lane id="E0_0" index="0" speed="13.89" length="500.00" shape="-16.80,11.20 -300.00,11.20"/>
        <lane id="E0_1" index="1" speed="13.89" length="500.00" shape="-16.80,8.00 -300.00,8.00"/>
        <lane id="E0_2" index="2" speed="13.89" length="500.00" shape="-16.80,4.80 -300.00,4.80"/>
        <lane id="E0_3" index="3" speed="13.89" length="500.00" shape="-16.80,1.60 -300.00,1.60"/>
    </edge>
    <edge id="E1" from="J0" to="J2" priority="-1" length="500.00">
        <lane id="E1_0" index="0" speed="13.89" length="500.00" shape="11.20,16.80 11.20,300.00"/>
        <lane id="E1_1" index="1" speed="13.89" length="500.00" shape="8.00,16.80 8.00,300.00"/>
        <lane id="E1_2" index="2" speed="13.89" length="500.00" shape="4.80,16.80 4.80,300.00"/>
        <lane id="E1_3" index="3" speed="13.89" length="500.00" shape="1.60,16.80 1.60,300.00"/>
    </edge>
    <edge id="E2" from="J0" to="J3" priority="-1" length="500.00">
        <lane id="E2_0" index="0" speed="13.89" length="500.00" shape="16.80,-11.20 300.00,-11.20"/>
        <lane id="E2_1" index="1" speed="13.89" length="500.00" shape="16.80,-8.00 300.00,-8.00"/>
        <lane id="E2_2" index="2" speed="13.89" length="500.00" shape="16.80,-4.80 300.00,-4.80"/>
        <lane id="E2_3" index="3" speed="13.89" length="500.00" shape="16.80,-1.60 300.00,-1.60"/>
    </edge>
    <edge id="E3" from="J0" to="J4" priority="-1" length="500.00">
        <lane id="E3_0" index="0" speed="13.89" length="500.00" shape="-11.20,-16.80 -11.20,-300.00"/>
        <lane id="E3_1" index="1" speed="13.89" length="500.00" shape="-8.00,-16.80 -8.00,-300.00"/>
        <lane id="E3_2" index="2" speed="13.89" length="500.00" shape="-4.80,-16.80 -4.80,-300.00"/>
        <lane id="E3_3" index="3" speed="13.89" length="500.00" shape="-1.60,-16.80 -1.60,-300.00"/>
    </edge>

    <tlLogic id="J0" type="static" programID="0" offset="0">
        <phase duration="40" state="GGGGGgrrrrrrGGGGGgrrrrrr"/>
        <phase duration="6"  state="yyyyyyrrrrrryyyyyyrrrrrr"/>
        <phase duration="40" state="rrrrrrGGGGGgrrrrrrGGGGGg"/>
        <phase duration="6"  state="rrrrrryyyyyyrrrrrryyyyyy"/>
    </tlLogic>

    <junction id="J0" type="traffic_light" x="0.00" y="0.00" incLanes="-E1_0 -E1_1 -E1_2 -E1_3 -E2_0 -E2_1 -E2_2 -E2_3 -E3_0 -E3_1 -E3_2 -E3_3 -E0_0 -E0_1 -E0_2 -E0_3" intLanes=":J0_0_0 :J0_1_0 :J0_1_1 :J0_1_2 :J0_1_3 :J0_24_0 :J0_6_0 :J0_7_0 :J0_7_1 :J0_7_2 :J0_7_3 :J0_25_0 :J0_12_0 :J0_13_0 :J0_13_1 :J0_13_2 :J0_13_3 :J0_26_0 :J0_18_0 :J0_19_0 :J0_19_1 :J0_19_2 :J0_19_3 :J0_27_0" shape="-12.80,16.80 12.80,16.80 13.24,14.58 13.80,13.80 14.58,13.24 15.58,12.91 16.80,12.80 16.80,-12.80 14.58,-13.24 13.80,-13.80 13.24,-14.58 12.91,-15.58 12.80,-16.80 -12.80,-16.80 -13.24,-14.58 -13.80,-13.80 -14.58,-13.24 -15.58,-12.91 -16.80,-12.80 -16.80,12.80 -14.58,13.24 -13.80,13.80 -13.24,14.58 -12.91,15.58">
        <request index="0"  response="000000000000000000000000" foes="000000000000011110000000" cont="0"/>
        <request index="1"  response="100000000000100000000000" foes="111111100000111110000000" cont="0"/>
        <request index="2"  response="100000000000100000000000" foes="111111100000111110000000" cont="0"/>
        <request index="3"  response="100000000000100000000000" foes="111111100000111110000000" cont="0"/>
        <request index="4"  response="100000000000100000000000" foes="111111100000111110000000" cont="0"/>
        <request index="5"  response="100000011110100000000000" foes="111110011110111110000000" cont="1"/>
        <request index="6"  response="000000011110000000000000" foes="000000011110000000000000" cont="0"/>
        <request index="7"  response="000000111110000000111111" foes="100000111110000000111111" cont="0"/>
        <request index="8"  response="000000111110000000111111" foes="100000111110000000111111" cont="0"/>
        <request index="9"  response="000000111110000000111111" foes="100000111110000000111111" cont="0"/>
        <request index="10" response="000000111110000000111111" foes="100000111110000000111111" cont="0"/>
        <request index="11" response="011110111110000000111110" foes="011110111110000000111110" cont="1"/>
        <request index="12" response="000000000000000000000000" foes="011110000000000000000000" cont="0"/>
        <request index="13" response="100000000000100000000000" foes="111110000000111111100000" cont="0"/>
        <request index="14" response="100000000000100000000000" foes="111110000000111111100000" cont="0"/>
        <request index="15" response="100000000000100000000000" foes="111110000000111111100000" cont="0"/>
        <request index="16" response="100000000000100000000000" foes="111110000000111111100000" cont="0"/>
        <request index="17" response="100000000000100000011110" foes="111110000000111110011110" cont="1"/>
        <request index="18" response="000000000000000000011110" foes="000000000000000000011110" cont="0"/>
        <request index="19" response="000000111111000000111110" foes="000000111111100000111110" cont="0"/>
        <request index="20" response="000000111111000000111110" foes="000000111111100000111110" cont="0"/>
        <request index="21" response="000000111111000000111110" foes="000000111111100000111110" cont="0"/>
        <request index="22" response="000000111111000000111110" foes="000000111111100000111110" cont="0"/>
        <request index="23" response="000000111110011110111110" foes="000000111110011110111110" cont="1"/>
    </junction>
    <junction id="J1" type="dead_end" x="-300.00" y="0.00" incLanes="E0_0 E0_1 E0_2 E0_3" intLanes="" shape="-300.00,0.00 -300.00,12.80 -300.00,0.00"/>
    <junction id="J2" type="dead_end" x="0.00" y="300.00" incLanes="E1_0 E1_1 E1_2 E1_3" intLanes="" shape="0.00,300.00 12.80,300.00 0.00,300.00"/>
    <junction id="J3" type="dead_end" x="300.00" y="0.00" incLanes="E2_0 E2_1 E2_2 E2_3" intLanes="" shape="300.00,0.00 300.00,-12.80 300.00,0.00"/>
    <junction id="J4" type="dead_end" x="0.00" y="-300.00" incLanes="E3_0 E3_1 E3_2 E3_3" intLanes="" shape="0.00,-300.00 -12.80,-300.00 0.00,-300.00"/>

    <junction id=":J0_24_0" type="internal" x="-0.89" y="11.84" incLanes=":J0_5_0 -E3_0 -E3_1 -E3_2 -E3_3" intLanes=":J0_7_0 :J0_7_1 :J0_7_2 :J0_7_3 :J0_11_0 :J0_12_0 :J0_13_0 :J0_13_1 :J0_13_2 :J0_13_3 :J0_19_0 :J0_19_1 :J0_19_2 :J0_19_3 :J0_23_0"/>
    <junction id=":J0_25_0" type="internal" x="11.84" y="0.89" incLanes=":J0_11_0 -E0_0 -E0_1 -E0_2 -E0_3" intLanes=":J0_1_0 :J0_1_1 :J0_1_2 :J0_1_3 :J0_5_0 :J0_13_0 :J0_13_1 :J0_13_2 :J0_13_3 :J0_17_0 :J0_18_0 :J0_19_0 :J0_19_1 :J0_19_2 :J0_19_3"/>
    <junction id=":J0_26_0" type="internal" x="0.89" y="-11.84" incLanes=":J0_17_0 -E1_0 -E1_1 -E1_2 -E1_3" intLanes=":J0_0_0 :J0_1_0 :J0_1_1 :J0_1_2 :J0_1_3 :J0_7_0 :J0_7_1 :J0_7_2 :J0_7_3 :J0_11_0 :J0_19_0 :J0_19_1 :J0_19_2 :J0_19_3 :J0_23_0"/>
    <junction id=":J0_27_0" type="internal" x="-11.84" y="-0.89" incLanes=":J0_23_0 -E2_0 -E2_1 -E2_2 -E2_3" intLanes=":J0_1_0 :J0_1_1 :J0_1_2 :J0_1_3 :J0_5_0 :J0_6_0 :J0_7_0 :J0_7_1 :J0_7_2 :J0_7_3 :J0_13_0 :J0_13_1 :J0_13_2 :J0_13_3 :J0_17_0"/>

    <connection from="-E0" to="E3" fromLane="0" toLane="0" via=":J0_18_0" tl="J0" linkIndex="18" dir="r" state="o"/>
    <connection from="-E0" to="E2" fromLane="0" toLane="0" via=":J0_19_0" tl="J0" linkIndex="19" dir="s" state="o"/>
    <connection from="-E0" to="E2" fromLane="1" toLane="1" via=":J0_19_1" tl="J0" linkIndex="20" dir="s" state="o"/>
    <connection from="-E0" to="E2" fromLane="2" toLane="2" via=":J0_19_2" tl="J0" linkIndex="21" dir="s" state="o"/>
    <connection from="-E0" to="E2" fromLane="3" toLane="3" via=":J0_19_3" tl="J0" linkIndex="22" dir="s" state="o"/>
    <connection from="-E0" to="E1" fromLane="3" toLane="3" via=":J0_23_0" tl="J0" linkIndex="23" dir="l" state="o"/>
    <connection from="-E1" to="E0" fromLane="0" toLane="0" via=":J0_0_0" tl="J0" linkIndex="0" dir="r" state="O"/>
    <connection from="-E1" to="E3" fromLane="0" toLane="0" via=":J0_1_0" tl="J0" linkIndex="1" dir="s" state="O"/>
    <connection from="-E1" to="E3" fromLane="1" toLane="1" via=":J0_1_1" tl="J0" linkIndex="2" dir="s" state="O"/>
    <connection from="-E1" to="E3" fromLane="2" toLane="2" via=":J0_1_2" tl="J0" linkIndex="3" dir="s" state="O"/>
    <connection from="-E1" to="E3" fromLane="3" toLane="3" via=":J0_1_3" tl="J0" linkIndex="4" dir="s" state="O"/>
    <connection from="-E1" to="E2" fromLane="3" toLane="3" via=":J0_5_0" tl="J0" linkIndex="5" dir="l" state="o"/>
    <connection from="-E2" to="E1" fromLane="0" toLane="0" via=":J0_6_0" tl="J0" linkIndex="6" dir="r" state="o"/>
    <connection from="-E2" to="E0" fromLane="0" toLane="0" via=":J0_7_0" tl="J0" linkIndex="7" dir="s" state="o"/>
    <connection from="-E2" to="E0" fromLane="1" toLane="1" via=":J0_7_1" tl="J0" linkIndex="8" dir="s" state="o"/>
    <connection from="-E2" to="E0" fromLane="2" toLane="2" via=":J0_7_2" tl="J0" linkIndex="9" dir="s" state="o"/>
    <connection from="-E2" to="E0" fromLane="3" toLane="3" via=":J0_7_3" tl="J0" linkIndex="10" dir="s" state="o"/>
    <connection from="-E2" to="E3" fromLane="3" toLane="3" via=":J0_11_0" tl="J0" linkIndex="11" dir="l" state="o"/>
    <connection from="-E3" to="E2" fromLane="0" toLane="0" via=":J0_12_0" tl="J0" linkIndex="12" dir="r" state="O"/>
    <connection from="-E3" to="E1" fromLane="0" toLane="0" via=":J0_13_0" tl="J0" linkIndex="13" dir="s" state="O"/>
    <connection from="-E3" to="E1" fromLane="1" toLane="1" via=":J0_13_1" tl="J0" linkIndex="14" dir="s" state="O"/>
    <connection from="-E3" to="E1" fromLane="2" toLane="2" via=":J0_13_2" tl="J0" linkIndex="15" dir="s" state="O"/>
    <connection from="-E3" to="E1" fromLane="3" toLane="3" via=":J0_13_3" tl="J0" linkIndex="16" dir="s" state="O"/>
    <connection from="-E3" to="E0" fromLane="3" toLane="3" via=":J0_17_0" tl="J0" linkIndex="17" dir="l" state="o"/>

    <connection from=":J0_0" to="E0" fromLane="0" toLane="0" dir="r" state="M"/>
    <connection from=":J0_1" to="E3" fromLane="0" toLane="0" dir="s" state="M"/>
    <connection from=":J0_1" to="E3" fromLane="1" toLane="1" dir="s" state="M"/>
    <connection from=":J0_1" to="E3" fromLane="2" toLane="2" dir="s" state="M"/>
    <connection from=":J0_1" to="E3" fromLane="3" toLane="3" dir="s" state="M"/>
    <connection from=":J0_5" to="E2" fromLane="0" toLane="3" via=":J0_24_0" dir="l" state="m"/>
    <connection from=":J0_24" to="E2" fromLane="0" toLane="3" dir="l" state="M"/>
    <connection from=":J0_6" to="E1" fromLane="0" toLane="0" dir="r" state="M"/>
    <connection from=":J0_7" to="E0" fromLane="0" toLane="0" dir="s" state="M"/>
    <connection from=":J0_7" to="E0" fromLane="1" toLane="1" dir="s" state="M"/>
    <connection from=":J0_7" to="E0" fromLane="2" toLane="2" dir="s" state="M"/>
    <connection from=":J0_7" to="E0" fromLane="3" toLane="3" dir="s" state="M"/>
    <connection from=":J0_11" to="E3" fromLane="0" toLane="3" via=":J0_25_0" dir="l" state="m"/>
    <connection from=":J0_25" to="E3" fromLane="0" toLane="3" dir="l" state="M"/>
    <connection from=":J0_12" to="E2" fromLane="0" toLane="0" dir="r" state="M"/>
    <connection from=":J0_13" to="E1" fromLane="0" toLane="0" dir="s" state="M"/>
    <connection from=":J0_13" to="E1" fromLane="1" toLane="1" dir="s" state="M"/>
    <connection from=":J0_13" to="E1" fromLane="2" toLane="2" dir="s" state="M"/>
    <connection from=":J0_13" to="E1" fromLane="3" toLane="3" dir="s" state="M"/>
    <connection from=":J0_17" to="E0" fromLane="0" toLane="3" via=":J0_26_0" dir="l" state="m"/>
    <connection from=":J0_26" to="E0" fromLane="0" toLane="3" dir="l" state="M"/>
    <connection from=":J0_18" to="E3" fromLane="0" toLane="0" dir="r" state="M"/>
    <connection from=":J0_19" to="E2" fromLane="0" toLane="0" dir="s" state="M"/>
    <connection from=":J0_19" to="E2" fromLane="1" toLane="1" dir="s" state="M"/>
    <connection from=":J0_19" to="E2" fromLane="2" toLane="2" dir="s" state="M"/>
    <connection from=":J0_19" to="E2" fromLane="3" toLane="3" dir="s" state="M"/>
    <connection from=":J0_23" to="E1" fromLane="0" toLane="3" via=":J0_27_0" dir="l" state="m"/>
    <connection from=":J0_27" to="E1" fromLane="0" toLane="3" dir="l" state="M"/>

</net>
