<configuration>
            <input>
                <net-file value="test2.net.xml"/>
                <route-files value="test2.rou.xml"/>
           </input>


            <time>
            <begin value='0'/>
            <end value='7200'/>
            </time>



</configuration>
 